%chk=claisen.chk
#p opt=(nomicro,ts,calcfc,noeigen) external='python3 Gaudftb.py'

ts

0 1
 C                  1.33677600   -0.25980300    0.56812200
 O                  0.94547800   -1.35654800   -0.02548100
 C                 -0.79150400   -1.08862600   -1.05258100
 C                 -0.90659600    0.30191500   -1.04422800
 C                 -1.21721400    0.98654800    0.12325300
 C                  0.61119100    0.37386100    1.56319100
 H                  2.20109100    0.26884900    0.14271900
 H                  0.98727000    1.28682400    2.01460900
 H                 -0.13350000   -0.17852000    2.12339700
 H                 -0.46633200   -1.61669000   -1.94061400
 H                 -1.31689000   -1.68762100   -0.31795700
 H                 -0.45099200    0.85571900   -1.86257700
 H                 -1.82055400    0.51524700    0.89089600
 H                 -1.16196000    2.06930700    0.16908600

